STAAD SPACE N_15_m_single_span_RC_girder_reference_final_composite_grillage
START JOB INFORMATION
ENGINEER NAME RC_SINGLE_SPAN_BRIDGE_ANALYSIS_ANN
END JOB INFORMATION
SET Z UP
UNIT METER KNS
JOINT COORDINATES
1 0 -5.5 0;
2 0 -5.1 0;
3 0 -3.4 0;
4 0 -3.25 0;
5 0 -2.75 0;
6 0 -2.25 0;
7 0 -1.75 0;
8 0 -1.7 0;
9 0 -1.5 0;
10 0 -1.25 0;
11 0 -0.75 0;
12 0 -0.5 0;
13 0 -0.25 0;
14 0 0 0;
15 0 0.25 0;
16 0 0.5 0;
17 0 0.75 0;
18 0 1.25 0;
19 0 1.5 0;
20 0 1.7 0;
# ... 1303 like lines cut
MEMBER INCIDENCES
1 2 29;
2 29 56;
3 56 83;
4 83 110;
5 110 137;
6 137 164;
7 164 191;
8 191 218;
9 218 245;
10 245 272;
11 272 299;
12 299 326;
13 326 353;
14 353 380;
15 380 407;
16 407 434;
17 434 461;
18 461 488;
19 488 515;
20 515 542;
# ... 1590 like lines cut
MEMBER PROPERTY
1 TO 10 PRIS AX 0.59875 IX 0.016940869535 IY 0.0855591794157 IZ 0.0335497395833
11 TO 20 PRIS AX 0.59875 IX 0.016940869535 IY 0.0855591794157 IZ 0.0335497395833
21 TO 30 PRIS AX 0.59875 IX 0.016940869535 IY 0.0855591794157 IZ 0.0335497395833
31 TO 40 PRIS AX 0.59875 IX 0.016940869535 IY 0.0855591794157 IZ 0.0335497395833
41 TO 48 PRIS AX 0.59875 IX 0.016940869535 IY 0.0855591794157 IZ 0.0335497395833
49 TO 58 PRIS AX 0.6775 IX 0.0177447713229 IY 0.0971527680081 IZ 0.0767145833333
59 TO 68 PRIS AX 0.6775 IX 0.0177447713229 IY 0.0971527680081 IZ 0.0767145833333
69 TO 78 PRIS AX 0.6775 IX 0.0177447713229 IY 0.0971527680081 IZ 0.0767145833333
79 TO 88 PRIS AX 0.6775 IX 0.0177447713229 IY 0.0971527680081 IZ 0.0767145833333
89 TO 96 PRIS AX 0.6775 IX 0.0177447713229 IY 0.0971527680081 IZ 0.0767145833333
97 TO 106 PRIS AX 0.6775 IX 0.0177447713229 IY 0.0971527680081 IZ 0.0767145833333
107 TO 116 PRIS AX 0.6775 IX 0.0177447713229 IY 0.0971527680081 IZ 0.0767145833333
117 TO 126 PRIS AX 0.6775 IX 0.0177447713229 IY 0.0971527680081 IZ 0.0767145833333
127 TO 136 PRIS AX 0.6775 IX 0.0177447713229 IY 0.0971527680081 IZ 0.0767145833333
137 TO 144 PRIS AX 0.6775 IX 0.0177447713229 IY 0.0971527680081 IZ 0.0767145833333
145 TO 154 PRIS AX 0.6775 IX 0.0177447713229 IY 0.0971527680081 IZ 0.0767145833333
155 TO 164 PRIS AX 0.6775 IX 0.0177447713229 IY 0.0971527680081 IZ 0.0767145833333
165 TO 174 PRIS AX 0.6775 IX 0.0177447713229 IY 0.0971527680081 IZ 0.0767145833333
175 TO 184 PRIS AX 0.6775 IX 0.0177447713229 IY 0.0971527680081 IZ 0.0767145833333
185 TO 192 PRIS AX 0.6775 IX 0.0177447713229 IY 0.0971527680081 IZ 0.0767145833333
# ... 162 like lines cut
DEFINE MATERIAL START
ISOTROPIC Concrete
E 31000000
POISSON 0.2
DENSITY 24
ALPHA 1e-05
END DEFINE MATERIAL
CONSTANTS
MATERIAL Concrete MEMB 1 TO 20
MATERIAL Concrete MEMB 21 TO 40
MATERIAL Concrete MEMB 41 TO 60
MATERIAL Concrete MEMB 61 TO 80
MATERIAL Concrete MEMB 81 TO 100
MATERIAL Concrete MEMB 101 TO 120
MATERIAL Concrete MEMB 121 TO 140
MATERIAL Concrete MEMB 141 TO 160
MATERIAL Concrete MEMB 161 TO 180
MATERIAL Concrete MEMB 181 TO 200
MATERIAL Concrete MEMB 201 TO 220
MATERIAL Concrete MEMB 221 TO 240
MATERIAL Concrete MEMB 241 TO 260
MATERIAL Concrete MEMB 261 TO 280
MATERIAL Concrete MEMB 281 TO 300
MATERIAL Concrete MEMB 301 TO 320
MATERIAL Concrete MEMB 321 TO 340
MATERIAL Concrete MEMB 341 TO 360
MATERIAL Concrete MEMB 361 TO 380
MATERIAL Concrete MEMB 381 TO 400
# ... 61 like lines cut
SUPPORTS
2 PINNED
1298 FIXED BUT FX FY MX MY MZ
3 FIXED BUT FY MX MY MZ
1299 FIXED BUT FX FY MX MY MZ
8 FIXED BUT FY MX MY MZ
1304 FIXED BUT FX FY MX MY MZ
14 FIXED BUT FY MX MY MZ
1310 FIXED BUT FX FY MX MY MZ
20 FIXED BUT FY MX MY MZ
1316 FIXED BUT FX FY MX MY MZ
25 FIXED BUT FY MX MY MZ
1321 FIXED BUT FX FY MX MY MZ
26 FIXED BUT FY MX MY MZ
1322 FIXED BUT FX FY MX MY MZ
LOAD 127 LOADTYPE None TITLE BD_37_01_HB_45_unit_spacing_6_m_
JOINT LOAD
139 FZ -112.5
141 FZ -112.5
145 FZ -112.5
148 FZ -112.5
301 FZ -112.5
303 FZ -112.5
307 FZ -112.5
310 FZ -112.5
814 FZ -112.5
816 FZ -112.5
820 FZ -112.5
823 FZ -112.5
976 FZ -112.5
978 FZ -112.5
982 FZ -112.5
985 FZ -112.5
PERFORM ANALYSIS
PRINT SUPPORT REACTION ALL
PRINT MEMBER FORCES GLOBAL LIST 1 2 3 4 5 6 7 8 9 10 11 12 13 14 15 16 17 18 19 20 21 22 23 24
PRINT MEMBER FORCES GLOBAL LIST 25 26 27 28 29 30 31 32 33 34 35 36 37 38 39 40 41 42 43 44 45 46 47 48
PRINT MEMBER FORCES GLOBAL LIST 49 50 51 52 53 54 55 56 57 58 59 60 61 62 63 64 65 66 67 68 69 70 71 72
PRINT MEMBER FORCES GLOBAL LIST 73 74 75 76 77 78 79 80 81 82 83 84 85 86 87 88 89 90 91 92 93 94 95 96
PRINT MEMBER FORCES GLOBAL LIST 97 98 99 100 101 102 103 104 105 106 107 108 109 110 111 112 113 114 115 116 117 118 119 120
PRINT MEMBER FORCES GLOBAL LIST 121 122 123 124 125 126 127 128 129 130 131 132 133 134 135 136 137 138 139 140 141 142 143 144
PRINT MEMBER FORCES GLOBAL LIST 145 146 147 148 149 150 151 152 153 154 155 156 157 158 159 160 161 162 163 164 165 166 167 168
PRINT MEMBER FORCES GLOBAL LIST 169 170 171 172 173 174 175 176 177 178 179 180 181 182 183 184 185 186 187 188 189 190 191 192
PRINT MEMBER FORCES GLOBAL LIST 193 194 195 196 197 198 199 200 201 202 203 204 205 206 207 208 209 210 211 212 213 214 215 216
PRINT MEMBER FORCES GLOBAL LIST 217 218 219 220 221 222 223 224 225 226 227 228 229 230 231 232 233 234 235 236 237 238 239 240
PRINT MEMBER FORCES GLOBAL LIST 241 242 243 244 245 246 247 248 249 250 251 252 253 254 255 256 257 258 259 260 261 262 263 264
PRINT MEMBER FORCES GLOBAL LIST 265 266 267 268 269 270 271 272 273 274 275 276 277 278 279 280 281 282 283 284 285 286 287 288
PRINT MEMBER FORCES GLOBAL LIST 289 290 291 292 293 294 295 296 297 298 299 300 301 302 303 304 305 306 307 308 309 310 311 312
PRINT MEMBER FORCES GLOBAL LIST 313 314 315 316 317 318 319 320 321 322 323 324 325 326 327 328 329 330 331 332 333 334 335 336
PRINT MEMBER FORCES GLOBAL LIST 337 338 339 340 341 342 343 344 345 346 347 348 349 350 351 352 353 354 355 356 357 358 359 360
PRINT MEMBER FORCES GLOBAL LIST 361 362 363 364 365 366 367 368 369 370 371 372 373 374 375 376 377 378 379 380 381 382 383 384
PRINT MEMBER FORCES GLOBAL LIST 385 386 387 388 389 390 391 392 393 394 395 396 397 398 399 400 401 402 403 404 405 406 407 408
PRINT MEMBER FORCES GLOBAL LIST 409 410 411 412 413 414 415 416 417 418 419 420 421 422 423 424 425 426 427 428 429 430 431 432
PRINT MEMBER FORCES GLOBAL LIST 433 434 435 436 437 438 439 440 441 442 443 444 445 446 447 448 449 450 451 452 453 454 455 456
PRINT MEMBER FORCES GLOBAL LIST 457 458 459 460 461 462 463 464 465 466 467 468 469 470 471 472 473 474 475 476 477 478 479 480
# ... 48 like lines cut
PRINT JOINT DISPLACEMENTS ALL
FINISH
