STAAD SPACE N_15_m_single_span_RC_girder_reference___construction_stage_superimposed___girder_3
START JOB INFORMATION
ENGINEER NAME RC_SINGLE_SPAN_BRIDGE_ANALYSIS_ANN
END JOB INFORMATION
SET Z UP
UNIT METER KNS
JOINT COORDINATES
1 0 0 0;
2 1.875 0 0;
3 3.75 0 0;
4 5.625 0 0;
5 7.49999988542 0 0;
6 9.375 0 0;
7 11.25 0 0;
8 13.125 0 0;
9 15 0 0;
MEMBER INCIDENCES
1 1 2;
2 2 3;
3 3 4;
4 4 5;
5 5 6;
6 6 7;
7 7 8;
8 8 9;
MEMBER PROPERTY
1 TO 8 PRIS AX 0.6775 IX 0.0177447713229 IY 0.0971527680081 IZ 0.0767145833333
DEFINE MATERIAL START
ISOTROPIC Concrete
E 31000000
POISSON 0.2
DENSITY 24
ALPHA 1e-05
END DEFINE MATERIAL
CONSTANTS
MATERIAL Concrete MEMB 1 TO 8
SUPPORTS
1 FIXED BUT MY MZ
2 FIXED BUT FX FY FZ MY MZ
3 FIXED BUT FX FY FZ MY MZ
4 FIXED BUT FX FY FZ MY MZ
5 FIXED BUT FX FY FZ MY MZ
6 FIXED BUT FX FY FZ MY MZ
7 FIXED BUT FX FY FZ MY MZ
8 FIXED BUT FX FY FZ MY MZ
9 FIXED BUT FX FY MY MZ
LOAD 303 LOADTYPE None TITLE G3_superimposed
MEMBER LOAD
1 UNI GZ -2.992
2 UNI GZ -2.992
3 UNI GZ -2.992
4 UNI GZ -2.992
5 UNI GZ -2.992
6 UNI GZ -2.992
7 UNI GZ -2.992
8 UNI GZ -2.992
PERFORM ANALYSIS
PRINT SUPPORT REACTION ALL
PRINT MEMBER FORCES GLOBAL LIST 1 2 3 4 5 6 7 8
PRINT JOINT DISPLACEMENTS ALL
FINISH
