STAAD SPACE N_15_m_single_span_RC_girder_reference___precast_girder_structural_dead
START JOB INFORMATION
ENGINEER NAME RC_SINGLE_SPAN_BRIDGE_ANALYSIS_ANN
END JOB INFORMATION
SET Z UP
UNIT METER KNS
JOINT COORDINATES
1 0 -5.1 0;
2 0 -3.4 0;
3 0 -1.7 0;
4 0 0 0;
5 0 1.7 0;
6 0 3.4 0;
7 0 5.1 0;
8 1.875 -5.1 0;
9 1.875 -3.4 0;
10 1.875 -1.7 0;
11 1.875 0 0;
12 1.875 1.7 0;
13 1.875 3.4 0;
14 1.875 5.1 0;
15 3.75 -5.1 0;
16 3.75 -3.4 0;
17 3.75 -1.7 0;
18 3.75 0 0;
19 3.75 1.7 0;
20 3.75 3.4 0;
# ... 43 like lines cut
MEMBER INCIDENCES
1 1 8;
2 8 15;
3 15 22;
4 22 29;
5 29 36;
6 36 43;
7 43 50;
8 50 57;
9 2 9;
10 9 16;
11 16 23;
12 23 30;
13 30 37;
14 37 44;
15 44 51;
16 51 58;
17 3 10;
18 10 17;
19 17 24;
20 24 31;
# ... 36 like lines cut
MEMBER PROPERTY
1 TO 8 PRIS AX 0.38 IX 0.0149047473444 IY 0.0285791666667 IZ 0.00506666666667
9 TO 16 PRIS AX 0.38 IX 0.0149047473444 IY 0.0285791666667 IZ 0.00506666666667
17 TO 24 PRIS AX 0.38 IX 0.0149047473444 IY 0.0285791666667 IZ 0.00506666666667
25 TO 32 PRIS AX 0.38 IX 0.0149047473444 IY 0.0285791666667 IZ 0.00506666666667
33 TO 40 PRIS AX 0.38 IX 0.0149047473444 IY 0.0285791666667 IZ 0.00506666666667
41 TO 48 PRIS AX 0.38 IX 0.0149047473444 IY 0.0285791666667 IZ 0.00506666666667
49 TO 56 PRIS AX 0.38 IX 0.0149047473444 IY 0.0285791666667 IZ 0.00506666666667
DEFINE MATERIAL START
ISOTROPIC Concrete
E 31000000
POISSON 0.2
DENSITY 24
ALPHA 1e-05
END DEFINE MATERIAL
CONSTANTS
MATERIAL Concrete MEMB 1 TO 20
MATERIAL Concrete MEMB 21 TO 40
MATERIAL Concrete MEMB 41 TO 56
SUPPORTS
1 FIXED BUT MY MZ
57 FIXED BUT FX FY MX MY MZ
2 FIXED BUT FY MY MZ
58 FIXED BUT FX FY MX MY MZ
3 FIXED BUT FY MY MZ
59 FIXED BUT FX FY MX MY MZ
4 FIXED BUT FY MY MZ
60 FIXED BUT FX FY MX MY MZ
5 FIXED BUT FY MY MZ
61 FIXED BUT FX FY MX MY MZ
6 FIXED BUT FY MY MZ
62 FIXED BUT FX FY MX MY MZ
7 FIXED BUT FY MY MZ
63 FIXED BUT FX FY MX MY MZ
LOAD 201 LOADTYPE None TITLE precast_girder_structural_dead
MEMBER LOAD
1 UNI GZ -9.12
2 UNI GZ -9.12
3 UNI GZ -9.12
4 UNI GZ -9.12
5 UNI GZ -9.12
6 UNI GZ -9.12
7 UNI GZ -9.12
8 UNI GZ -9.12
1 UNI GZ -2.25
2 UNI GZ -2.25
3 UNI GZ -2.25
4 UNI GZ -2.25
5 UNI GZ -2.25
6 UNI GZ -2.25
7 UNI GZ -2.25
8 UNI GZ -2.25
9 UNI GZ -9.12
10 UNI GZ -9.12
11 UNI GZ -9.12
12 UNI GZ -9.12
# ... 92 like lines cut
PERFORM ANALYSIS
PRINT SUPPORT REACTION ALL
PRINT MEMBER FORCES GLOBAL LIST 1 2 3 4 5 6 7 8 9 10 11 12 13 14 15 16 17 18 19 20 21 22 23 24
PRINT MEMBER FORCES GLOBAL LIST 25 26 27 28 29 30 31 32 33 34 35 36 37 38 39 40 41 42 43 44 45 46 47 48
PRINT MEMBER FORCES GLOBAL LIST 49 50 51 52 53 54 55 56
PRINT JOINT DISPLACEMENTS ALL
FINISH
