STAAD SPACE N_15_m_single_span_RC_girder_reference_HA_HB_case_786
START JOB INFORMATION
ENGINEER NAME RC_SINGLE_SPAN_BRIDGE_ANALYSIS_ANN
END JOB INFORMATION
SET Z UP
UNIT METER KNS
JOINT COORDINATES
1 0 -5.5 0;
2 0 -5.1 0;
3 0 -3.5 0;
4 0 -3.4 0;
5 0 -3.25 0;
6 0 -2.25 0;
7 0 -1.7 0;
8 0 -1.5 0;
9 0 -1.25 0;
10 0 -0.5 0;
11 0 -0.25 0;
12 0 0 0;
13 0 0.25 0;
14 0 0.5 0;
15 0 0.75 0;
16 0 1 0;
17 0 1.25 0;
18 0 1.5 0;
19 0 1.7 0;
20 0 1.75 0;
# ... 1114 like lines cut
MEMBER INCIDENCES
1 2 29;
2 29 56;
3 56 83;
4 83 110;
5 110 137;
6 137 164;
7 164 191;
8 191 218;
9 218 245;
10 245 272;
11 272 299;
12 299 326;
13 326 353;
14 353 380;
15 380 407;
16 407 434;
17 434 461;
18 461 488;
19 488 515;
20 515 542;
# ... 1359 like lines cut
MEMBER PROPERTY
1 TO 10 PRIS AX 0.59875 IX 0.016940869535 IY 0.0855591794157 IZ 0.0335497395833
11 TO 20 PRIS AX 0.59875 IX 0.016940869535 IY 0.0855591794157 IZ 0.0335497395833
21 TO 30 PRIS AX 0.59875 IX 0.016940869535 IY 0.0855591794157 IZ 0.0335497395833
31 TO 40 PRIS AX 0.59875 IX 0.016940869535 IY 0.0855591794157 IZ 0.0335497395833
41 PRIS AX 0.59875 IX 0.016940869535 IY 0.0855591794157 IZ 0.0335497395833
42 TO 51 PRIS AX 0.6775 IX 0.0177447713229 IY 0.0971527680081 IZ 0.0767145833333
52 TO 61 PRIS AX 0.6775 IX 0.0177447713229 IY 0.0971527680081 IZ 0.0767145833333
62 TO 71 PRIS AX 0.6775 IX 0.0177447713229 IY 0.0971527680081 IZ 0.0767145833333
72 TO 81 PRIS AX 0.6775 IX 0.0177447713229 IY 0.0971527680081 IZ 0.0767145833333
82 PRIS AX 0.6775 IX 0.0177447713229 IY 0.0971527680081 IZ 0.0767145833333
83 TO 92 PRIS AX 0.6775 IX 0.0177447713229 IY 0.0971527680081 IZ 0.0767145833333
93 TO 102 PRIS AX 0.6775 IX 0.0177447713229 IY 0.0971527680081 IZ 0.0767145833333
103 TO 112 PRIS AX 0.6775 IX 0.0177447713229 IY 0.0971527680081 IZ 0.0767145833333
113 TO 122 PRIS AX 0.6775 IX 0.0177447713229 IY 0.0971527680081 IZ 0.0767145833333
123 PRIS AX 0.6775 IX 0.0177447713229 IY 0.0971527680081 IZ 0.0767145833333
124 TO 133 PRIS AX 0.6775 IX 0.0177447713229 IY 0.0971527680081 IZ 0.0767145833333
134 TO 143 PRIS AX 0.6775 IX 0.0177447713229 IY 0.0971527680081 IZ 0.0767145833333
144 TO 153 PRIS AX 0.6775 IX 0.0177447713229 IY 0.0971527680081 IZ 0.0767145833333
154 TO 163 PRIS AX 0.6775 IX 0.0177447713229 IY 0.0971527680081 IZ 0.0767145833333
164 PRIS AX 0.6775 IX 0.0177447713229 IY 0.0971527680081 IZ 0.0767145833333
165 TO 174 PRIS AX 0.6775 IX 0.0177447713229 IY 0.0971527680081 IZ 0.0767145833333
175 TO 184 PRIS AX 0.6775 IX 0.0177447713229 IY 0.0971527680081 IZ 0.0767145833333
185 TO 194 PRIS AX 0.6775 IX 0.0177447713229 IY 0.0971527680081 IZ 0.0767145833333
195 TO 204 PRIS AX 0.6775 IX 0.0177447713229 IY 0.0971527680081 IZ 0.0767145833333
205 PRIS AX 0.6775 IX 0.0177447713229 IY 0.0971527680081 IZ 0.0767145833333
206 TO 215 PRIS AX 0.6775 IX 0.0177447713229 IY 0.0971527680081 IZ 0.0767145833333
216 TO 225 PRIS AX 0.6775 IX 0.0177447713229 IY 0.0971527680081 IZ 0.0767145833333
226 TO 235 PRIS AX 0.6775 IX 0.0177447713229 IY 0.0971527680081 IZ 0.0767145833333
236 TO 245 PRIS AX 0.6775 IX 0.0177447713229 IY 0.0971527680081 IZ 0.0767145833333
246 PRIS AX 0.6775 IX 0.0177447713229 IY 0.0971527680081 IZ 0.0767145833333
247 TO 256 PRIS AX 0.59875 IX 0.016940869535 IY 0.0855591794157 IZ 0.0335497395833
257 TO 266 PRIS AX 0.59875 IX 0.016940869535 IY 0.0855591794157 IZ 0.0335497395833
267 TO 276 PRIS AX 0.59875 IX 0.016940869535 IY 0.0855591794157 IZ 0.0335497395833
277 TO 286 PRIS AX 0.59875 IX 0.016940869535 IY 0.0855591794157 IZ 0.0335497395833
287 PRIS AX 0.59875 IX 0.016940869535 IY 0.0855591794157 IZ 0.0335497395833
288 TO 297 PRIS AX 0.00175 IX 5.62333351992e-08 IY 4.46614583333e-06 IZ 1.45833333333e-08
298 TO 307 PRIS AX 0.00175 IX 5.62333351992e-08 IY 4.46614583333e-06 IZ 1.45833333333e-08
308 TO 313 PRIS AX 0.00175 IX 5.62333351992e-08 IY 4.46614583333e-06 IZ 1.45833333333e-08
314 TO 323 PRIS AX 0.0175 IX 3.75199222546e-05 IY 4.46614583333e-05 IZ 1.45833333333e-05
324 TO 333 PRIS AX 0.0175 IX 3.75199222546e-05 IY 4.46614583333e-05 IZ 1.45833333333e-05
334 TO 339 PRIS AX 0.0175 IX 3.75199222546e-05 IY 4.46614583333e-05 IZ 1.45833333333e-05
340 TO 349 PRIS AX 0.03325 IX 0.000154282177089 IY 8.48567708333e-05 IZ 0.000100027083333
350 TO 359 PRIS AX 0.03325 IX 0.000154282177089 IY 8.48567708333e-05 IZ 0.000100027083333
360 TO 365 PRIS AX 0.03325 IX 0.000154282177089 IY 8.48567708333e-05 IZ 0.000100027083333
366 TO 375 PRIS AX 0.14 IX 0.00123224721764 IY 0.000357291666667 IZ 0.00746666666667
376 TO 385 PRIS AX 0.14 IX 0.00123224721764 IY 0.000357291666667 IZ 0.00746666666667
386 TO 391 PRIS AX 0.14 IX 0.00123224721764 IY 0.000357291666667 IZ 0.00746666666667
392 TO 401 PRIS AX 0.14 IX 0.00123224721764 IY 0.000357291666667 IZ 0.00746666666667
402 TO 411 PRIS AX 0.14 IX 0.00123224721764 IY 0.000357291666667 IZ 0.00746666666667
412 TO 417 PRIS AX 0.14 IX 0.00123224721764 IY 0.000357291666667 IZ 0.00746666666667
418 TO 427 PRIS AX 0.01925 IX 4.72955365904e-05 IY 4.91276041667e-05 IZ 1.94104166667e-05
428 TO 437 PRIS AX 0.01925 IX 4.72955365904e-05 IY 4.91276041667e-05 IZ 1.94104166667e-05
438 TO 443 PRIS AX 0.01925 IX 4.72955365904e-05 IY 4.91276041667e-05 IZ 1.94104166667e-05
444 TO 453 PRIS AX 0.0175 IX 3.75199222546e-05 IY 4.46614583333e-05 IZ 1.45833333333e-05
454 TO 463 PRIS AX 0.0175 IX 3.75199222546e-05 IY 4.46614583333e-05 IZ 1.45833333333e-05
# ... 106 like lines cut
DEFINE MATERIAL START
ISOTROPIC Concrete
E 31000000
POISSON 0.2
DENSITY 24
ALPHA 1e-05
END DEFINE MATERIAL
CONSTANTS
MATERIAL Concrete MEMB 1 TO 20
MATERIAL Concrete MEMB 21 TO 40
MATERIAL Concrete MEMB 41 TO 60
MATERIAL Concrete MEMB 61 TO 80
MATERIAL Concrete MEMB 81 TO 100
MATERIAL Concrete MEMB 101 TO 120
MATERIAL Concrete MEMB 121 TO 140
MATERIAL Concrete MEMB 141 TO 160
MATERIAL Concrete MEMB 161 TO 180
MATERIAL Concrete MEMB 181 TO 200
MATERIAL Concrete MEMB 201 TO 220
MATERIAL Concrete MEMB 221 TO 240
MATERIAL Concrete MEMB 241 TO 260
MATERIAL Concrete MEMB 261 TO 280
MATERIAL Concrete MEMB 281 TO 300
MATERIAL Concrete MEMB 301 TO 320
MATERIAL Concrete MEMB 321 TO 340
MATERIAL Concrete MEMB 341 TO 360
MATERIAL Concrete MEMB 361 TO 380
MATERIAL Concrete MEMB 381 TO 400
# ... 49 like lines cut
SUPPORTS
2 PINNED
1109 FIXED BUT FX FY MX MY MZ
4 FIXED BUT FY MX MY MZ
1111 FIXED BUT FX FY MX MY MZ
7 FIXED BUT FY MX MY MZ
1114 FIXED BUT FX FY MX MY MZ
12 FIXED BUT FY MX MY MZ
1119 FIXED BUT FX FY MX MY MZ
19 FIXED BUT FY MX MY MZ
1126 FIXED BUT FX FY MX MY MZ
24 FIXED BUT FY MX MY MZ
1131 FIXED BUT FX FY MX MY MZ
26 FIXED BUT FY MX MY MZ
1133 FIXED BUT FX FY MX MY MZ
LOAD 786 LOADTYPE None TITLE BD_37_01_HA_HB_case_786
JOINT LOAD
12 FZ -0.0187507528563
13 FZ -0.0375015057125
14 FZ -0.0375015057125
15 FZ -0.0375015057125
16 FZ -0.0375015057125
17 FZ -0.0375015057125
18 FZ -0.0337513551413
19 FZ -0.0187507528563
20 FZ -0.0412516562838
21 FZ -0.0750030114251
22 FZ -0.0750030114251
23 FZ -0.0487519574263
24 FZ -0.0187507528563
25 FZ -0.00750030114251
39 FZ -0.187507528563
40 FZ -0.375015057125
41 FZ -0.375015057125
42 FZ -0.375015057125
43 FZ -0.375015057125
44 FZ -0.375015057125
# ... 584 like lines cut
PERFORM ANALYSIS
PRINT SUPPORT REACTION ALL
PRINT MEMBER FORCES GLOBAL LIST 1 2 3 4 5 6 7 8 9 10 11 12 13 14 15 16 17 18 19 20 21 22 23 24
PRINT MEMBER FORCES GLOBAL LIST 25 26 27 28 29 30 31 32 33 34 35 36 37 38 39 40 41 42 43 44 45 46 47 48
PRINT MEMBER FORCES GLOBAL LIST 49 50 51 52 53 54 55 56 57 58 59 60 61 62 63 64 65 66 67 68 69 70 71 72
PRINT MEMBER FORCES GLOBAL LIST 73 74 75 76 77 78 79 80 81 82 83 84 85 86 87 88 89 90 91 92 93 94 95 96
PRINT MEMBER FORCES GLOBAL LIST 97 98 99 100 101 102 103 104 105 106 107 108 109 110 111 112 113 114 115 116 117 118 119 120
PRINT MEMBER FORCES GLOBAL LIST 121 122 123 124 125 126 127 128 129 130 131 132 133 134 135 136 137 138 139 140 141 142 143 144
PRINT MEMBER FORCES GLOBAL LIST 145 146 147 148 149 150 151 152 153 154 155 156 157 158 159 160 161 162 163 164 165 166 167 168
PRINT MEMBER FORCES GLOBAL LIST 169 170 171 172 173 174 175 176 177 178 179 180 181 182 183 184 185 186 187 188 189 190 191 192
PRINT MEMBER FORCES GLOBAL LIST 193 194 195 196 197 198 199 200 201 202 203 204 205 206 207 208 209 210 211 212 213 214 215 216
PRINT MEMBER FORCES GLOBAL LIST 217 218 219 220 221 222 223 224 225 226 227 228 229 230 231 232 233 234 235 236 237 238 239 240
PRINT MEMBER FORCES GLOBAL LIST 241 242 243 244 245 246 247 248 249 250 251 252 253 254 255 256 257 258 259 260 261 262 263 264
PRINT MEMBER FORCES GLOBAL LIST 265 266 267 268 269 270 271 272 273 274 275 276 277 278 279 280 281 282 283 284 285 286 287 288
PRINT MEMBER FORCES GLOBAL LIST 289 290 291 292 293 294 295 296 297 298 299 300 301 302 303 304 305 306 307 308 309 310 311 312
PRINT MEMBER FORCES GLOBAL LIST 313 314 315 316 317 318 319 320 321 322 323 324 325 326 327 328 329 330 331 332 333 334 335 336
PRINT MEMBER FORCES GLOBAL LIST 337 338 339 340 341 342 343 344 345 346 347 348 349 350 351 352 353 354 355 356 357 358 359 360
PRINT MEMBER FORCES GLOBAL LIST 361 362 363 364 365 366 367 368 369 370 371 372 373 374 375 376 377 378 379 380 381 382 383 384
PRINT MEMBER FORCES GLOBAL LIST 385 386 387 388 389 390 391 392 393 394 395 396 397 398 399 400 401 402 403 404 405 406 407 408
PRINT MEMBER FORCES GLOBAL LIST 409 410 411 412 413 414 415 416 417 418 419 420 421 422 423 424 425 426 427 428 429 430 431 432
PRINT MEMBER FORCES GLOBAL LIST 433 434 435 436 437 438 439 440 441 442 443 444 445 446 447 448 449 450 451 452 453 454 455 456
PRINT MEMBER FORCES GLOBAL LIST 457 458 459 460 461 462 463 464 465 466 467 468 469 470 471 472 473 474 475 476 477 478 479 480
# ... 38 like lines cut
PRINT JOINT DISPLACEMENTS ALL
FINISH
