STAAD SPACE N_15_m_single_span_RC_girder_reference_LM1_case_457
START JOB INFORMATION
ENGINEER NAME RC_SINGLE_SPAN_BRIDGE_ANALYSIS_ANN
END JOB INFORMATION
SET Z UP
UNIT METER KNS
JOINT COORDINATES
1 0 -5.5 0;
2 0 -5.1 0;
3 0 -3.5 0;
4 0 -3.4 0;
5 0 -3 0;
6 0 -2.5 0;
7 0 -2 0;
8 0 -1.7 0;
9 0 -1 0;
10 0 -0.5 0;
11 0 0 0;
12 0 0.5 0;
13 0 1 0;
14 0 1.7 0;
15 0 2 0;
16 0 2.5 0;
17 0 3 0;
18 0 3.4 0;
19 0 3.5 0;
20 0 5.1 0;
# ... 295 like lines cut
MEMBER INCIDENCES
1 2 23;
2 23 44;
3 44 65;
4 65 86;
5 86 107;
6 107 128;
7 128 149;
8 149 170;
9 170 191;
10 191 212;
11 212 233;
12 233 254;
13 254 275;
14 275 296;
15 4 25;
16 25 46;
17 46 67;
18 67 88;
19 88 109;
20 109 130;
# ... 378 like lines cut
MEMBER PROPERTY
1 TO 10 PRIS AX 0.59875 IX 0.016940869535 IY 0.0855591794157 IZ 0.0335497395833
11 TO 14 PRIS AX 0.59875 IX 0.016940869535 IY 0.0855591794157 IZ 0.0335497395833
15 TO 24 PRIS AX 0.6775 IX 0.0177447713229 IY 0.0971527680081 IZ 0.0767145833333
25 TO 28 PRIS AX 0.6775 IX 0.0177447713229 IY 0.0971527680081 IZ 0.0767145833333
29 TO 38 PRIS AX 0.6775 IX 0.0177447713229 IY 0.0971527680081 IZ 0.0767145833333
39 TO 42 PRIS AX 0.6775 IX 0.0177447713229 IY 0.0971527680081 IZ 0.0767145833333
43 TO 52 PRIS AX 0.6775 IX 0.0177447713229 IY 0.0971527680081 IZ 0.0767145833333
53 TO 56 PRIS AX 0.6775 IX 0.0177447713229 IY 0.0971527680081 IZ 0.0767145833333
57 TO 66 PRIS AX 0.6775 IX 0.0177447713229 IY 0.0971527680081 IZ 0.0767145833333
67 TO 70 PRIS AX 0.6775 IX 0.0177447713229 IY 0.0971527680081 IZ 0.0767145833333
71 TO 80 PRIS AX 0.6775 IX 0.0177447713229 IY 0.0971527680081 IZ 0.0767145833333
81 TO 84 PRIS AX 0.6775 IX 0.0177447713229 IY 0.0971527680081 IZ 0.0767145833333
85 TO 94 PRIS AX 0.59875 IX 0.016940869535 IY 0.0855591794157 IZ 0.0335497395833
95 TO 98 PRIS AX 0.59875 IX 0.016940869535 IY 0.0855591794157 IZ 0.0335497395833
99 TO 108 PRIS AX 0.105 IX 0.000875036747141 IY 0.00026796875 IZ 0.00315
109 TO 118 PRIS AX 0.105 IX 0.000875036747141 IY 0.00026796875 IZ 0.00315
119 TO 128 PRIS AX 0.21 IX 0.0019468003924 IY 0.0005359375 IZ 0.0252
129 TO 138 PRIS AX 0.21 IX 0.0019468003924 IY 0.0005359375 IZ 0.0252
139 TO 148 PRIS AX 0.21 IX 0.0019468003924 IY 0.0005359375 IZ 0.0252
149 TO 158 PRIS AX 0.21 IX 0.0019468003924 IY 0.0005359375 IZ 0.0252
# ... 24 like lines cut
DEFINE MATERIAL START
ISOTROPIC Concrete
E 31000000
POISSON 0.2
DENSITY 24
ALPHA 1e-05
END DEFINE MATERIAL
CONSTANTS
MATERIAL Concrete MEMB 1 TO 20
MATERIAL Concrete MEMB 21 TO 40
MATERIAL Concrete MEMB 41 TO 60
MATERIAL Concrete MEMB 61 TO 80
MATERIAL Concrete MEMB 81 TO 100
MATERIAL Concrete MEMB 101 TO 120
MATERIAL Concrete MEMB 121 TO 140
MATERIAL Concrete MEMB 141 TO 160
MATERIAL Concrete MEMB 161 TO 180
MATERIAL Concrete MEMB 181 TO 200
MATERIAL Concrete MEMB 201 TO 220
MATERIAL Concrete MEMB 221 TO 240
MATERIAL Concrete MEMB 241 TO 260
MATERIAL Concrete MEMB 261 TO 280
MATERIAL Concrete MEMB 281 TO 300
MATERIAL Concrete MEMB 301 TO 320
MATERIAL Concrete MEMB 321 TO 340
MATERIAL Concrete MEMB 341 TO 360
MATERIAL Concrete MEMB 361 TO 380
MATERIAL Concrete MEMB 381 TO 398
SUPPORTS
2 PINNED
296 FIXED BUT FX FY MX MY MZ
4 FIXED BUT FY MX MY MZ
298 FIXED BUT FX FY MX MY MZ
8 FIXED BUT FY MX MY MZ
302 FIXED BUT FX FY MX MY MZ
11 FIXED BUT FY MX MY MZ
305 FIXED BUT FX FY MX MY MZ
14 FIXED BUT FY MX MY MZ
308 FIXED BUT FX FY MX MY MZ
18 FIXED BUT FY MX MY MZ
312 FIXED BUT FX FY MX MY MZ
20 FIXED BUT FY MX MY MZ
314 FIXED BUT FX FY MX MY MZ
LOAD 457 LOADTYPE None TITLE LM1_search_case_457
JOINT LOAD
3 FZ -0.075
4 FZ -0.375
5 FZ -0.675
6 FZ -0.75
7 FZ -0.6
8 FZ -0.75
9 FZ -0.9
10 FZ -0.75
11 FZ -0.75
12 FZ -1.725
13 FZ -3.24
14 FZ -2.7
15 FZ -2.16
16 FZ -2.7
17 FZ -2.43
18 FZ -1.35
19 FZ -0.27
24 FZ -0.15
25 FZ -0.75
26 FZ -1.35
# ... 235 like lines cut
PERFORM ANALYSIS
PRINT SUPPORT REACTION ALL
PRINT MEMBER FORCES GLOBAL LIST 1 2 3 4 5 6 7 8 9 10 11 12 13 14 15 16 17 18 19 20 21 22 23 24
PRINT MEMBER FORCES GLOBAL LIST 25 26 27 28 29 30 31 32 33 34 35 36 37 38 39 40 41 42 43 44 45 46 47 48
PRINT MEMBER FORCES GLOBAL LIST 49 50 51 52 53 54 55 56 57 58 59 60 61 62 63 64 65 66 67 68 69 70 71 72
PRINT MEMBER FORCES GLOBAL LIST 73 74 75 76 77 78 79 80 81 82 83 84 85 86 87 88 89 90 91 92 93 94 95 96
PRINT MEMBER FORCES GLOBAL LIST 97 98 99 100 101 102 103 104 105 106 107 108 109 110 111 112 113 114 115 116 117 118 119 120
PRINT MEMBER FORCES GLOBAL LIST 121 122 123 124 125 126 127 128 129 130 131 132 133 134 135 136 137 138 139 140 141 142 143 144
PRINT MEMBER FORCES GLOBAL LIST 145 146 147 148 149 150 151 152 153 154 155 156 157 158 159 160 161 162 163 164 165 166 167 168
PRINT MEMBER FORCES GLOBAL LIST 169 170 171 172 173 174 175 176 177 178 179 180 181 182 183 184 185 186 187 188 189 190 191 192
PRINT MEMBER FORCES GLOBAL LIST 193 194 195 196 197 198 199 200 201 202 203 204 205 206 207 208 209 210 211 212 213 214 215 216
PRINT MEMBER FORCES GLOBAL LIST 217 218 219 220 221 222 223 224 225 226 227 228 229 230 231 232 233 234 235 236 237 238 239 240
PRINT MEMBER FORCES GLOBAL LIST 241 242 243 244 245 246 247 248 249 250 251 252 253 254 255 256 257 258 259 260 261 262 263 264
PRINT MEMBER FORCES GLOBAL LIST 265 266 267 268 269 270 271 272 273 274 275 276 277 278 279 280 281 282 283 284 285 286 287 288
PRINT MEMBER FORCES GLOBAL LIST 289 290 291 292 293 294 295 296 297 298 299 300 301 302 303 304 305 306 307 308 309 310 311 312
PRINT MEMBER FORCES GLOBAL LIST 313 314 315 316 317 318 319 320 321 322 323 324 325 326 327 328 329 330 331 332 333 334 335 336
PRINT MEMBER FORCES GLOBAL LIST 337 338 339 340 341 342 343 344 345 346 347 348 349 350 351 352 353 354 355 356 357 358 359 360
PRINT MEMBER FORCES GLOBAL LIST 361 362 363 364 365 366 367 368 369 370 371 372 373 374 375 376 377 378 379 380 381 382 383 384
PRINT MEMBER FORCES GLOBAL LIST 385 386 387 388 389 390 391 392 393 394 395 396 397 398
PRINT JOINT DISPLACEMENTS ALL
FINISH
