STAAD SPACE N_15_m_single_span_RC_girder_reference_final_composite_grillage
START JOB INFORMATION
ENGINEER NAME RC_SINGLE_SPAN_BRIDGE_ANALYSIS_ANN
END JOB INFORMATION
SET Z UP
UNIT METER KNS
JOINT COORDINATES
1 0 -5.5 0;
2 0 -5.1 0;
3 0 -3.5 0;
4 0 -3.4 0;
5 0 -1.7 0;
6 0 0 0;
7 0 1.7 0;
8 0 3.4 0;
9 0 3.5 0;
10 0 5.1 0;
11 0 5.5 0;
12 0.01 -5.5 0;
13 0.01 -5.1 0;
14 0.01 -3.5 0;
15 0.01 -3.4 0;
16 0.01 -1.7 0;
17 0.01 0 0;
18 0.01 1.7 0;
19 0.01 3.4 0;
20 0.01 3.5 0;
# ... 189 like lines cut
MEMBER INCIDENCES
1 2 13;
2 13 24;
3 24 35;
4 35 46;
5 46 57;
6 57 68;
7 68 79;
8 79 90;
9 90 101;
10 101 112;
11 112 123;
12 123 134;
13 134 145;
14 145 156;
15 156 167;
16 167 178;
17 178 189;
18 189 200;
19 4 15;
20 15 26;
# ... 296 like lines cut
MEMBER PROPERTY
1 TO 10 PRIS AX 0.59875 IX 0.016940869535 IY 0.0855591794157 IZ 0.0335497395833
11 TO 18 PRIS AX 0.59875 IX 0.016940869535 IY 0.0855591794157 IZ 0.0335497395833
19 TO 28 PRIS AX 0.6775 IX 0.0177447713229 IY 0.0971527680081 IZ 0.0767145833333
29 TO 36 PRIS AX 0.6775 IX 0.0177447713229 IY 0.0971527680081 IZ 0.0767145833333
37 TO 46 PRIS AX 0.6775 IX 0.0177447713229 IY 0.0971527680081 IZ 0.0767145833333
47 TO 54 PRIS AX 0.6775 IX 0.0177447713229 IY 0.0971527680081 IZ 0.0767145833333
55 TO 64 PRIS AX 0.6775 IX 0.0177447713229 IY 0.0971527680081 IZ 0.0767145833333
65 TO 72 PRIS AX 0.6775 IX 0.0177447713229 IY 0.0971527680081 IZ 0.0767145833333
73 TO 82 PRIS AX 0.6775 IX 0.0177447713229 IY 0.0971527680081 IZ 0.0767145833333
83 TO 90 PRIS AX 0.6775 IX 0.0177447713229 IY 0.0971527680081 IZ 0.0767145833333
91 TO 100 PRIS AX 0.6775 IX 0.0177447713229 IY 0.0971527680081 IZ 0.0767145833333
101 TO 108 PRIS AX 0.6775 IX 0.0177447713229 IY 0.0971527680081 IZ 0.0767145833333
109 TO 118 PRIS AX 0.59875 IX 0.016940869535 IY 0.0855591794157 IZ 0.0335497395833
119 TO 126 PRIS AX 0.59875 IX 0.016940869535 IY 0.0855591794157 IZ 0.0335497395833
127 TO 136 PRIS AX 0.000875 IX 7.16041667396e-09 IY 2.23307291667e-06 IZ 1.82291666667e-09
137 TO 146 PRIS AX 0.088375 IX 0.000705441115457 IY 0.000225540364583 IZ 0.00187815286458
147 TO 156 PRIS AX 0.175 IX 0.00158951669576 IY 0.000446614583333 IZ 0.0145833333333
157 TO 166 PRIS AX 0.175 IX 0.00158951669576 IY 0.000446614583333 IZ 0.0145833333333
167 TO 176 PRIS AX 0.175 IX 0.00158951669576 IY 0.000446614583333 IZ 0.0145833333333
177 TO 186 PRIS AX 0.175 IX 0.00158951669576 IY 0.000446614583333 IZ 0.0145833333333
# ... 13 like lines cut
DEFINE MATERIAL START
ISOTROPIC Concrete
E 31000000
POISSON 0.2
DENSITY 24
ALPHA 1e-05
END DEFINE MATERIAL
CONSTANTS
MATERIAL Concrete MEMB 1 TO 20
MATERIAL Concrete MEMB 21 TO 40
MATERIAL Concrete MEMB 41 TO 60
MATERIAL Concrete MEMB 61 TO 80
MATERIAL Concrete MEMB 81 TO 100
MATERIAL Concrete MEMB 101 TO 120
MATERIAL Concrete MEMB 121 TO 140
MATERIAL Concrete MEMB 141 TO 160
MATERIAL Concrete MEMB 161 TO 180
MATERIAL Concrete MEMB 181 TO 200
MATERIAL Concrete MEMB 201 TO 220
MATERIAL Concrete MEMB 221 TO 240
MATERIAL Concrete MEMB 241 TO 260
MATERIAL Concrete MEMB 261 TO 280
MATERIAL Concrete MEMB 281 TO 300
MATERIAL Concrete MEMB 301 TO 316
SUPPORTS
2 PINNED
200 FIXED BUT FX FY MX MY MZ
4 FIXED BUT FY MX MY MZ
202 FIXED BUT FX FY MX MY MZ
5 FIXED BUT FY MX MY MZ
203 FIXED BUT FX FY MX MY MZ
6 FIXED BUT FY MX MY MZ
204 FIXED BUT FX FY MX MY MZ
7 FIXED BUT FY MX MY MZ
205 FIXED BUT FX FY MX MY MZ
8 FIXED BUT FY MX MY MZ
206 FIXED BUT FX FY MX MY MZ
10 FIXED BUT FY MX MY MZ
208 FIXED BUT FX FY MX MY MZ
LOAD 162 LOADTYPE None TITLE BD_37_01_HA_case_162
JOINT LOAD
3 FZ -0.00375015057125
4 FZ -0.0675027102826
5 FZ -0.127505119423
6 FZ -0.127505119423
7 FZ -0.127505119423
8 FZ -0.0675027102826
9 FZ -0.00375015057125
14 FZ -0.378765207697
15 FZ -6.81777373854
16 FZ -12.8780170617
17 FZ -12.8780170617
18 FZ -12.8780170617
19 FZ -6.81777373854
20 FZ -0.378765207697
25 FZ -0.750030114251
26 FZ -13.5005420565
27 FZ -25.5010238845
28 FZ -25.5010238845
29 FZ -25.5010238845
30 FZ -13.5005420565
# ... 113 like lines cut
PERFORM ANALYSIS
PRINT SUPPORT REACTION ALL
PRINT MEMBER FORCES GLOBAL LIST 1 2 3 4 5 6 7 8 9 10 11 12 13 14 15 16 17 18 19 20 21 22 23 24
PRINT MEMBER FORCES GLOBAL LIST 25 26 27 28 29 30 31 32 33 34 35 36 37 38 39 40 41 42 43 44 45 46 47 48
PRINT MEMBER FORCES GLOBAL LIST 49 50 51 52 53 54 55 56 57 58 59 60 61 62 63 64 65 66 67 68 69 70 71 72
PRINT MEMBER FORCES GLOBAL LIST 73 74 75 76 77 78 79 80 81 82 83 84 85 86 87 88 89 90 91 92 93 94 95 96
PRINT MEMBER FORCES GLOBAL LIST 97 98 99 100 101 102 103 104 105 106 107 108 109 110 111 112 113 114 115 116 117 118 119 120
PRINT MEMBER FORCES GLOBAL LIST 121 122 123 124 125 126 127 128 129 130 131 132 133 134 135 136 137 138 139 140 141 142 143 144
PRINT MEMBER FORCES GLOBAL LIST 145 146 147 148 149 150 151 152 153 154 155 156 157 158 159 160 161 162 163 164 165 166 167 168
PRINT MEMBER FORCES GLOBAL LIST 169 170 171 172 173 174 175 176 177 178 179 180 181 182 183 184 185 186 187 188 189 190 191 192
PRINT MEMBER FORCES GLOBAL LIST 193 194 195 196 197 198 199 200 201 202 203 204 205 206 207 208 209 210 211 212 213 214 215 216
PRINT MEMBER FORCES GLOBAL LIST 217 218 219 220 221 222 223 224 225 226 227 228 229 230 231 232 233 234 235 236 237 238 239 240
PRINT MEMBER FORCES GLOBAL LIST 241 242 243 244 245 246 247 248 249 250 251 252 253 254 255 256 257 258 259 260 261 262 263 264
PRINT MEMBER FORCES GLOBAL LIST 265 266 267 268 269 270 271 272 273 274 275 276 277 278 279 280 281 282 283 284 285 286 287 288
PRINT MEMBER FORCES GLOBAL LIST 289 290 291 292 293 294 295 296 297 298 299 300 301 302 303 304 305 306 307 308 309 310 311 312
PRINT MEMBER FORCES GLOBAL LIST 313 314 315 316
PRINT JOINT DISPLACEMENTS ALL
FINISH
