STAAD SPACE N_15_m_single_span_RC_girder_reference___full_seven_girder_final_composite
START JOB INFORMATION
ENGINEER NAME RC_SINGLE_SPAN_BRIDGE_ANALYSIS_ANN
END JOB INFORMATION
SET Z UP
UNIT METER KNS
JOINT COORDINATES
1 0 -5.5 0;
2 0 -5.1 0;
3 0 -3.4 0;
4 0 -1.7 0;
5 0 0 0;
6 0 1.7 0;
7 0 3.4 0;
8 0 5.1 0;
9 0 5.5 0;
10 1.875 -5.5 0;
11 1.875 -5.1 0;
12 1.875 -3.4 0;
13 1.875 -1.7 0;
14 1.875 0 0;
15 1.875 1.7 0;
16 1.875 3.4 0;
17 1.875 5.1 0;
18 1.875 5.5 0;
19 3.75 -5.5 0;
20 3.75 -5.1 0;
# ... 61 like lines cut
MEMBER INCIDENCES
1 2 11;
2 11 20;
3 20 29;
4 29 38;
5 38 47;
6 47 56;
7 56 65;
8 65 74;
9 3 12;
10 12 21;
11 21 30;
12 30 39;
13 39 48;
14 48 57;
15 57 66;
16 66 75;
17 4 13;
18 13 22;
19 22 31;
20 31 40;
# ... 108 like lines cut
MEMBER PROPERTY
1 TO 8 PRIS AX 0.59875 IX 0.016940869535 IY 0.0855591794157 IZ 0.0335497395833
9 TO 16 PRIS AX 0.6775 IX 0.0177447713229 IY 0.0971527680081 IZ 0.0767145833333
17 TO 24 PRIS AX 0.6775 IX 0.0177447713229 IY 0.0971527680081 IZ 0.0767145833333
25 TO 32 PRIS AX 0.6775 IX 0.0177447713229 IY 0.0971527680081 IZ 0.0767145833333
33 TO 40 PRIS AX 0.6775 IX 0.0177447713229 IY 0.0971527680081 IZ 0.0767145833333
41 TO 48 PRIS AX 0.6775 IX 0.0177447713229 IY 0.0971527680081 IZ 0.0767145833333
49 TO 56 PRIS AX 0.59875 IX 0.016940869535 IY 0.0855591794157 IZ 0.0335497395833
57 TO 64 PRIS AX 0.1640625 IX 0.00147786758396 IY 0.000418701171875 IZ 0.0120162963867
65 TO 72 PRIS AX 0.328125 IX 0.00315265358923 IY 0.00083740234375 IZ 0.0961303710938
73 TO 80 PRIS AX 0.328125 IX 0.00315265358923 IY 0.00083740234375 IZ 0.0961303710938
81 TO 88 PRIS AX 0.328125 IX 0.00315265358923 IY 0.00083740234375 IZ 0.0961303710938
89 TO 96 PRIS AX 0.328125 IX 0.00315265358923 IY 0.00083740234375 IZ 0.0961303710938
97 TO 104 PRIS AX 0.328125 IX 0.00315265358923 IY 0.00083740234375 IZ 0.0961303710938
105 TO 112 PRIS AX 0.328125 IX 0.00315265358923 IY 0.00083740234375 IZ 0.0961303710938
113 TO 120 PRIS AX 0.328125 IX 0.00315265358923 IY 0.00083740234375 IZ 0.0961303710938
121 TO 128 PRIS AX 0.1640625 IX 0.00147786758396 IY 0.000418701171875 IZ 0.0120162963867
DEFINE MATERIAL START
ISOTROPIC Concrete
E 31000000
POISSON 0.2
DENSITY 24
ALPHA 1e-05
END DEFINE MATERIAL
CONSTANTS
MATERIAL Concrete MEMB 1 TO 20
MATERIAL Concrete MEMB 21 TO 40
MATERIAL Concrete MEMB 41 TO 60
MATERIAL Concrete MEMB 61 TO 80
MATERIAL Concrete MEMB 81 TO 100
MATERIAL Concrete MEMB 101 TO 120
MATERIAL Concrete MEMB 121 TO 128
SUPPORTS
2 PINNED
74 FIXED BUT FX FY MX MY MZ
3 FIXED BUT FY MX MY MZ
75 FIXED BUT FX FY MX MY MZ
4 FIXED BUT FY MX MY MZ
76 FIXED BUT FX FY MX MY MZ
5 FIXED BUT FY MX MY MZ
77 FIXED BUT FX FY MX MY MZ
6 FIXED BUT FY MX MY MZ
78 FIXED BUT FX FY MX MY MZ
7 FIXED BUT FY MX MY MZ
79 FIXED BUT FX FY MX MY MZ
8 FIXED BUT FY MX MY MZ
80 FIXED BUT FX FY MX MY MZ
LOAD 103 LOADTYPE None TITLE Full_bridge_superimposed
MEMBER LOAD
9 UNI GZ -1.672
10 UNI GZ -1.672
11 UNI GZ -1.672
12 UNI GZ -1.672
13 UNI GZ -1.672
14 UNI GZ -1.672
15 UNI GZ -1.672
16 UNI GZ -1.672
17 UNI GZ -2.992
18 UNI GZ -2.992
19 UNI GZ -2.992
20 UNI GZ -2.992
21 UNI GZ -2.992
22 UNI GZ -2.992
23 UNI GZ -2.992
24 UNI GZ -2.992
25 UNI GZ -2.992
26 UNI GZ -2.992
27 UNI GZ -2.992
28 UNI GZ -2.992
# ... 68 like lines cut
PERFORM ANALYSIS
PRINT SUPPORT REACTION ALL
PRINT MEMBER FORCES GLOBAL LIST 1 2 3 4 5 6 7 8 9 10 11 12 13 14 15 16 17 18 19 20 21 22 23 24
PRINT MEMBER FORCES GLOBAL LIST 25 26 27 28 29 30 31 32 33 34 35 36 37 38 39 40 41 42 43 44 45 46 47 48
PRINT MEMBER FORCES GLOBAL LIST 49 50 51 52 53 54 55 56 57 58 59 60 61 62 63 64 65 66 67 68 69 70 71 72
PRINT MEMBER FORCES GLOBAL LIST 73 74 75 76 77 78 79 80 81 82 83 84 85 86 87 88 89 90 91 92 93 94 95 96
PRINT MEMBER FORCES GLOBAL LIST 97 98 99 100 101 102 103 104 105 106 107 108 109 110 111 112 113 114 115 116 117 118 119 120
PRINT MEMBER FORCES GLOBAL LIST 121 122 123 124 125 126 127 128
PRINT JOINT DISPLACEMENTS ALL
FINISH
